 CRYSTAL
 PRIMVEC
     5.92300000    0.00000000    0.00000000
     0.00000000   10.32910000    0.00000000
    -1.97087176    0.00000000    5.67871337
 PRIMCOORD
   16 1
    44   2.96150000   -3.43235993    0.00000000
    44   0.00000000    1.73219007    0.00000000
    44   2.96150000    3.43235993    0.00000000
    44  -0.00000000   -1.73219007    0.00000000
    17  -2.06039399    5.16455000    1.32881893
    17   0.90110601   -0.00000000    1.32881893
    17   2.06039399    5.16455000   -1.32881893
    17  -0.90110601    0.00000000   -1.32881893
    17  -1.02489567   -3.39001062   -1.32711531
    17   1.93660433    1.77453938   -1.32711531
    17   1.02489567   -3.39001062    1.32711531
    17  -1.93660433    1.77453938    1.32711531
    17   1.02489567    3.39001062    1.32711531
    17  -1.93660433   -1.77453938    1.32711531
    17  -1.02489567    3.39001062   -1.32711531
    17   1.93660433   -1.77453938   -1.32711531
