 CRYSTAL
 PRIMVEC
     3.75309429   -2.16685000    0.00000000
     0.00000000    4.33370000    0.00000000
     0.00000000    0.00000000   27.27353333
 PRIMCOORD
   7 1
    25   0.00000000    0.00000000   13.63676667
    83   1.25103143    2.16685000   17.38196826
    83   2.50206286    0.00000000    9.89156507
    52   0.00000000    0.00000000   19.09133697
    52   0.00000000    0.00000000    8.18219637
    52   1.25103143    2.16685000   12.04235591
    52   2.50206286    0.00000000   15.23117743
